NOVO24/1726538/Trafos.dss
! ==========================================================
! TRANSFORMADORES DE DISTRIBUICAO — gerados de UNTRMT/EQTRMT
! Secundario 1F/2F: 3 enrolamentos com derivacao central
! Neutro no no 4, aterrado em _ATERRAMENTO.dss
! Kv de BT conforme TEN_LIN_SE da BDGD
! ==========================================================
New Transformer.2705962881_2705962880 phases=3 windings=2 Xhl=3.840
~ wdg=1 bus=node_427822025.1.2.3 conn=delta Kv=13.8 Kva=150.0 %R=0.565
~ wdg=2 bus=node_460960095.1.2.3.4 conn=wye Kv=0.2200 Kva=150.0 %R=0.565
New Transformer.2580144540_2580144539 phases=3 windings=2 Xhl=3.840
~ wdg=1 bus=node_2732401331.1.2.3 conn=delta Kv=13.8 Kva=150.0 %R=0.565
~ wdg=2 bus=node_2732401370.1.2.3.4 conn=wye Kv=0.2200 Kva=150.0 %R=0.565
New Transformer.326165306_1118711535 phases=3 windings=2 Xhl=3.840
~ wdg=1 bus=node_427823195.1.2.3 conn=delta Kv=13.8 Kva=150.0 %R=0.565
~ wdg=2 bus=node_415525515.1.2.3.4 conn=wye Kv=0.2200 Kva=150.0 %R=0.565
New Transformer.326166049_1091560640 phases=3 windings=2 Xhl=3.840
~ wdg=1 bus=node_427979159.1.2.3 conn=delta Kv=13.8 Kva=150.0 %R=0.565
~ wdg=2 bus=node_415576487.1.2.3.4 conn=wye Kv=0.2200 Kva=150.0 %R=0.565
New Transformer.326674316_326849122 phases=3 windings=2 Xhl=3.840
~ wdg=1 bus=node_443779920.1.2.3 conn=delta Kv=13.8 Kva=150.0 %R=0.565
~ wdg=2 bus=node_515726768.1.2.3.4 conn=wye Kv=0.2200 Kva=150.0 %R=0.565
New Transformer.1814386771_1814386770 phases=3 windings=2 Xhl=3.840
~ wdg=1 bus=node_1503320916.1.2.3 conn=delta Kv=13.8 Kva=150.0 %R=0.565
~ wdg=2 bus=node_2137840934.1.2.3.4 conn=wye Kv=0.2200 Kva=150.0 %R=0.565
New Transformer.365377096_1583790388 phases=3 windings=2 Xhl=3.840
~ wdg=1 bus=node_425810141.1.2.3 conn=delta Kv=13.8 Kva=150.0 %R=0.565
~ wdg=2 bus=node_403352124.1.2.3.4 conn=wye Kv=0.2200 Kva=150.0 %R=0.565
New Transformer.326306982_326848107 phases=3 windings=2 Xhl=3.840
~ wdg=1 bus=node_427822310.1.2.3 conn=delta Kv=13.8 Kva=150.0 %R=0.565
~ wdg=2 bus=node_515289938.1.2.3.4 conn=wye Kv=0.2200 Kva=150.0 %R=0.565
New Transformer.326307121_1334978916 phases=3 windings=2 Xhl=3.840
~ wdg=1 bus=node_1630303338.1.2.3 conn=delta Kv=13.8 Kva=150.0 %R=0.565
~ wdg=2 bus=node_1630303304.1.2.3.4 conn=wye Kv=0.2200 Kva=150.0 %R=0.565
New Transformer.326581474_326941559 phases=3 windings=2 Xhl=3.840
~ wdg=1 bus=node_428781179.1.2.3 conn=delta Kv=13.8 Kva=150.0 %R=0.565
~ wdg=2 bus=node_415573445.1.2.3.4 conn=wye Kv=0.2200 Kva=150.0 %R=0.565
New Transformer.1897252402_1897252401 phases=3 windings=2 Xhl=3.840
~ wdg=1 bus=node_2216957858.1.2.3 conn=delta Kv=13.8 Kva=150.0 %R=0.565
~ wdg=2 bus=node_2216957928.1.2.3.4 conn=wye Kv=0.2200 Kva=150.0 %R=0.565
New Transformer.326580909_326942674 phases=3 windings=2 Xhl=3.840
~ wdg=1 bus=node_427822631.1.2.3 conn=delta Kv=13.8 Kva=150.0 %R=0.565
~ wdg=2 bus=node_417357235.1.2.3.4 conn=wye Kv=0.2200 Kva=150.0 %R=0.565
New Transformer.1835805335_1835805334 phases=3 windings=2 Xhl=3.840
~ wdg=1 bus=node_2158168833.1.2.3 conn=delta Kv=13.8 Kva=150.0 %R=0.565
~ wdg=2 bus=node_2158168982.1.2.3.4 conn=wye Kv=0.2200 Kva=150.0 %R=0.565
New Transformer.1204544368_2685485606 phases=3 windings=2 Xhl=4.960
~ wdg=1 bus=node_1503321016.1.2.3 conn=delta Kv=13.8 Kva=150.0 %R=0.305
~ wdg=2 bus=node_1503321036.1.2.3.4 conn=wye Kv=0.2200 Kva=150.0 %R=0.305
New Transformer.599352227_599352226 phases=3 windings=2 Xhl=3.840
~ wdg=1 bus=node_443780449.1.2.3 conn=delta Kv=13.8 Kva=150.0 %R=0.565
~ wdg=2 bus=node_867450034.1.2.3.4 conn=wye Kv=0.2200 Kva=150.0 %R=0.565
New Transformer.326446770_1966269842 phases=3 windings=2 Xhl=3.840
~ wdg=1 bus=node_427823560.1.2.3 conn=delta Kv=13.8 Kva=150.0 %R=0.565
~ wdg=2 bus=node_415617041.1.2.3.4 conn=wye Kv=0.2200 Kva=150.0 %R=0.565
New Transformer.325742717_326846840 phases=3 windings=2 Xhl=3.840
~ wdg=1 bus=node_427822620.1.2.3 conn=delta Kv=13.8 Kva=112.5 %R=0.565
~ wdg=2 bus=node_415724593.1.2.3.4 conn=wye Kv=0.2200 Kva=112.5 %R=0.565
New Transformer.326582670_326925795 phases=3 windings=2 Xhl=3.840
~ wdg=1 bus=node_427980469.1.2.3 conn=delta Kv=13.8 Kva=112.5 %R=0.565
~ wdg=2 bus=node_415576583.1.2.3.4 conn=wye Kv=0.2200 Kva=112.5 %R=0.565
New Transformer.326672408_326925811 phases=3 windings=2 Xhl=3.840
~ wdg=1 bus=node_428781259.1.2.3 conn=delta Kv=13.8 Kva=112.5 %R=0.565
~ wdg=2 bus=node_415616507.1.2.3.4 conn=wye Kv=0.2200 Kva=112.5 %R=0.565
New Transformer.326671534_326925804 phases=3 windings=2 Xhl=3.840
~ wdg=1 bus=node_435271463.1.2.3 conn=delta Kv=13.8 Kva=112.5 %R=0.565
~ wdg=2 bus=node_415576523.1.2.3.4 conn=wye Kv=0.2200 Kva=112.5 %R=0.565
New Transformer.326308749_326903222 phases=3 windings=2 Xhl=3.770
~ wdg=1 bus=node_427980764.1.2.3 conn=delta Kv=13.8 Kva=75.0 %R=0.670
~ wdg=2 bus=node_415573451.1.2.3.4 conn=wye Kv=0.2200 Kva=75.0 %R=0.670
New Transformer.326308585_326904890 phases=3 windings=2 Xhl=3.770
~ wdg=1 bus=node_427822541.1.2.3 conn=delta Kv=13.8 Kva=75.0 %R=0.670
~ wdg=2 bus=node_501078630.1.2.3.4 conn=wye Kv=0.2200 Kva=75.0 %R=0.670
New Transformer.326308638_326942657 phases=3 windings=2 Xhl=3.770
~ wdg=1 bus=node_429428153.1.2.3 conn=delta Kv=13.8 Kva=75.0 %R=0.670
~ wdg=2 bus=node_417468708.1.2.3.4 conn=wye Kv=0.2200 Kva=75.0 %R=0.670
New Transformer.326309029_326849048 phases=3 windings=2 Xhl=3.770
~ wdg=1 bus=node_427982022.1.2.3 conn=delta Kv=13.8 Kva=75.0 %R=0.670
~ wdg=2 bus=node_413011250.1.2.3.4 conn=wye Kv=0.2200 Kva=75.0 %R=0.670
New Transformer.326309118_326846767 phases=3 windings=2 Xhl=3.770
~ wdg=1 bus=node_427823015.1.2.3 conn=delta Kv=13.8 Kva=75.0 %R=0.670
~ wdg=2 bus=node_415523208.1.2.3.4 conn=wye Kv=0.2200 Kva=75.0 %R=0.670
New Transformer.326309453_326878593 phases=3 windings=2 Xhl=3.770
~ wdg=1 bus=node_443780245.1.2.3 conn=delta Kv=13.8 Kva=75.0 %R=0.670
~ wdg=2 bus=node_415573328.1.2.3.4 conn=wye Kv=0.2200 Kva=75.0 %R=0.670
New Transformer.326309300_326906226 phases=3 windings=2 Xhl=3.770
~ wdg=1 bus=node_428781425.1.2.3 conn=delta Kv=13.8 Kva=75.0 %R=0.670
~ wdg=2 bus=node_415576562.1.2.3.4 conn=wye Kv=0.2200 Kva=75.0 %R=0.670
New Transformer.326309473_326903207 phases=3 windings=2 Xhl=3.770
~ wdg=1 bus=node_428940702.1.2.3 conn=delta Kv=13.8 Kva=75.0 %R=0.670
~ wdg=2 bus=node_415575956.1.2.3.4 conn=wye Kv=0.2200 Kva=75.0 %R=0.670
New Transformer.326309516_326942727 phases=3 windings=2 Xhl=3.770
~ wdg=1 bus=node_427821541.1.2.3 conn=delta Kv=13.8 Kva=75.0 %R=0.670
~ wdg=2 bus=node_415616396.1.2.3.4 conn=wye Kv=0.2200 Kva=75.0 %R=0.670
New Transformer.326309201_326941567 phases=3 windings=2 Xhl=3.770
~ wdg=1 bus=node_443779861.1.2.3 conn=delta Kv=13.8 Kva=75.0 %R=0.670
~ wdg=2 bus=node_415577138.1.2.3.4 conn=wye Kv=0.2200 Kva=75.0 %R=0.670
New Transformer.326309638_326941565 phases=3 windings=2 Xhl=3.770
~ wdg=1 bus=node_427979209.1.2.3 conn=delta Kv=13.8 Kva=75.0 %R=0.670
~ wdg=2 bus=node_415576505.1.2.3.4 conn=wye Kv=0.2200 Kva=75.0 %R=0.670
New Transformer.325742466_464743914 phases=3 windings=2 Xhl=3.770
~ wdg=1 bus=node_427821526.1.2.3 conn=delta Kv=13.8 Kva=75.0 %R=0.670
~ wdg=2 bus=node_415616321.1.2.3.4 conn=wye Kv=0.2200 Kva=75.0 %R=0.670
New Transformer.325742698_326880397 phases=3 windings=2 Xhl=3.770
~ wdg=1 bus=node_427821640.1.2.3 conn=delta Kv=13.8 Kva=75.0 %R=0.670
~ wdg=2 bus=node_417435603.1.2.3.4 conn=wye Kv=0.2200 Kva=75.0 %R=0.670
New Transformer.325742672_326903217 phases=3 windings=2 Xhl=3.770
~ wdg=1 bus=node_427822446.1.2.3 conn=delta Kv=13.8 Kva=75.0 %R=0.670
~ wdg=2 bus=node_415616801.1.2.3.4 conn=wye Kv=0.2200 Kva=75.0 %R=0.670
New Transformer.326167181_555244258 phases=3 windings=2 Xhl=3.770
~ wdg=1 bus=node_443780031.1.2.3 conn=delta Kv=13.8 Kva=75.0 %R=0.670
~ wdg=2 bus=node_415617986.1.2.3.4 conn=wye Kv=0.2200 Kva=75.0 %R=0.670
New Transformer.326167216_326941431 phases=3 windings=2 Xhl=3.770
~ wdg=1 bus=node_427980869.1.2.3 conn=delta Kv=13.8 Kva=75.0 %R=0.670
~ wdg=2 bus=node_415668790.1.2.3.4 conn=wye Kv=0.2200 Kva=75.0 %R=0.670
New Transformer.326443178_326925793 phases=3 windings=2 Xhl=3.770
~ wdg=1 bus=node_427980769.1.2.3 conn=delta Kv=13.8 Kva=75.0 %R=0.670
~ wdg=2 bus=node_415573772.1.2.3.4 conn=wye Kv=0.2200 Kva=75.0 %R=0.670
New Transformer.326167272_326880346 phases=3 windings=2 Xhl=3.770
~ wdg=1 bus=node_428780954.1.2.3 conn=delta Kv=13.8 Kva=75.0 %R=0.670
~ wdg=2 bus=node_415573601.1.2.3.4 conn=wye Kv=0.2200 Kva=75.0 %R=0.670
New Transformer.326443352_773156170 phases=3 windings=2 Xhl=3.770
~ wdg=1 bus=node_428781419.1.2.3 conn=delta Kv=13.8 Kva=75.0 %R=0.670
~ wdg=2 bus=node_415724854.1.2.3.4 conn=wye Kv=0.2200 Kva=75.0 %R=0.670
New Transformer.326443446_326944714 phases=3 windings=2 Xhl=3.770
~ wdg=1 bus=node_435271423.1.2.3 conn=delta Kv=13.8 Kva=75.0 %R=0.670
~ wdg=2 bus=node_415617104.1.2.3.4 conn=wye Kv=0.2200 Kva=75.0 %R=0.670
New Transformer.326167595_326944708 phases=3 windings=2 Xhl=3.770
~ wdg=1 bus=node_441728533.1.2.3 conn=delta Kv=13.8 Kva=75.0 %R=0.670
~ wdg=2 bus=node_415525149.1.2.3.4 conn=wye Kv=0.2200 Kva=75.0 %R=0.670
New Transformer.326443719_326924549 phases=3 windings=2 Xhl=3.770
~ wdg=1 bus=node_429427647.1.2.3 conn=delta Kv=13.8 Kva=75.0 %R=0.670
~ wdg=2 bus=node_415617977.1.2.3.4 conn=wye Kv=0.2200 Kva=75.0 %R=0.670
New Transformer.326443756_326880529 phases=3 windings=2 Xhl=3.770
~ wdg=1 bus=node_427980934.1.2.3 conn=delta Kv=13.8 Kva=75.0 %R=0.670
~ wdg=2 bus=node_501026926.1.2.3.4 conn=wye Kv=0.2200 Kva=75.0 %R=0.670
New Transformer.326443898_326903214 phases=3 windings=2 Xhl=3.770
~ wdg=1 bus=node_427979794.1.2.3 conn=delta Kv=13.8 Kva=75.0 %R=0.670
~ wdg=2 bus=node_415616744.1.2.3.4 conn=wye Kv=0.2200 Kva=75.0 %R=0.670
New Transformer.326444054_326904891 phases=3 windings=2 Xhl=3.770
~ wdg=1 bus=node_443779225.1.2.3 conn=delta Kv=13.8 Kva=75.0 %R=0.670
~ wdg=2 bus=node_415575236.1.2.3.4 conn=wye Kv=0.2200 Kva=75.0 %R=0.670
New Transformer.326444114_326925799 phases=3 windings=2 Xhl=3.770
~ wdg=1 bus=node_427823154.1.2.3 conn=delta Kv=13.8 Kva=75.0 %R=0.670
~ wdg=2 bus=node_415573334.1.2.3.4 conn=wye Kv=0.2200 Kva=75.0 %R=0.670
New Transformer.326444918_326846764 phases=3 windings=2 Xhl=3.770
~ wdg=1 bus=node_429427812.1.2.3 conn=delta Kv=13.8 Kva=75.0 %R=0.670
~ wdg=2 bus=node_415575146.1.2.3.4 conn=wye Kv=0.2200 Kva=75.0 %R=0.670
New Transformer.326444985_326850515 phases=3 windings=2 Xhl=3.770
~ wdg=1 bus=node_443780504.1.2.3 conn=delta Kv=13.8 Kva=75.0 %R=0.670
~ wdg=2 bus=node_415617017.1.2.3.4 conn=wye Kv=0.2200 Kva=75.0 %R=0.670
New Transformer.2183864018_2183864017 phases=3 windings=2 Xhl=3.770
~ wdg=1 bus=node_2490374387.1.2.3 conn=delta Kv=13.8 Kva=75.0 %R=0.670
~ wdg=2 bus=node_2490374205.1.2.3.4 conn=wye Kv=0.2200 Kva=75.0 %R=0.670
New Transformer.326445525_326906399 phases=3 windings=2 Xhl=3.770
~ wdg=1 bus=node_435271244.1.2.3 conn=delta Kv=13.8 Kva=75.0 %R=0.670
~ wdg=2 bus=node_415616297.1.2.3.4 conn=wye Kv=0.2200 Kva=75.0 %R=0.670
New Transformer.326446795_2653593291 phases=3 windings=2 Xhl=3.770
~ wdg=1 bus=node_427822311.1.2.3 conn=delta Kv=13.8 Kva=75.0 %R=0.670
~ wdg=2 bus=node_416546506.1.2.3.4 conn=wye Kv=0.2200 Kva=75.0 %R=0.670
New Transformer.326446985_326846742 phases=3 windings=2 Xhl=3.770
~ wdg=1 bus=node_442550863.1.2.3 conn=delta Kv=13.8 Kva=75.0 %R=0.670
~ wdg=2 bus=node_415670413.1.2.3.4 conn=wye Kv=0.2200 Kva=75.0 %R=0.670
New Transformer.1052833496_1052833495 phases=3 windings=2 Xhl=3.770
~ wdg=1 bus=node_1319469644.1.2.3 conn=delta Kv=13.8 Kva=75.0 %R=0.670
~ wdg=2 bus=node_1319469656.1.2.3.4 conn=wye Kv=0.2200 Kva=75.0 %R=0.670
New Transformer.2306556500_2306556499 phases=3 windings=2 Xhl=3.770
~ wdg=1 bus=node_2579358616.1.2.3 conn=delta Kv=13.8 Kva=75.0 %R=0.670
~ wdg=2 bus=node_2760188451.1.2.3.4 conn=wye Kv=0.2200 Kva=75.0 %R=0.670
New Transformer.2240677981_2240677980 phases=3 windings=2 Xhl=3.770
~ wdg=1 bus=node_431228860.1.2.3 conn=delta Kv=13.8 Kva=75.0 %R=0.670
~ wdg=2 bus=node_417339358.1.2.3.4 conn=wye Kv=0.2200 Kva=75.0 %R=0.670
New Transformer.1115834566_1267769243 phases=3 windings=2 Xhl=3.770
~ wdg=1 bus=node_1566326860.1.2.3 conn=delta Kv=13.8 Kva=75.0 %R=0.670
~ wdg=2 bus=node_1566326867.1.2.3.4 conn=wye Kv=0.2200 Kva=75.0 %R=0.670
New Transformer.653014418_653014417 phases=3 windings=2 Xhl=3.770
~ wdg=1 bus=node_922535936.1.2.3 conn=delta Kv=13.8 Kva=75.0 %R=0.670
~ wdg=2 bus=node_1181404544.1.2.3.4 conn=wye Kv=0.2200 Kva=75.0 %R=0.670
New Transformer.1096284222_1114297454 phases=3 windings=2 Xhl=3.770
~ wdg=1 bus=node_1383501310.1.2.3 conn=delta Kv=13.8 Kva=75.0 %R=0.670
~ wdg=2 bus=node_1364302837.1.2.3.4 conn=wye Kv=0.2200 Kva=75.0 %R=0.670
New Transformer.837596330_837596331 phases=3 windings=2 Xhl=3.770
~ wdg=1 bus=node_1106898812.1.2.3 conn=delta Kv=13.8 Kva=75.0 %R=0.670
~ wdg=2 bus=node_1106898872.1.2.3.4 conn=wye Kv=0.2200 Kva=75.0 %R=0.670
New Transformer.890240701_890240700 phases=3 windings=2 Xhl=3.770
~ wdg=1 bus=node_427978979.1.2.3 conn=delta Kv=13.8 Kva=75.0 %R=0.670
~ wdg=2 bus=node_415577246.1.2.3.4 conn=wye Kv=0.2200 Kva=75.0 %R=0.670
New Transformer.891782667_891782666 phases=3 windings=2 Xhl=3.770
~ wdg=1 bus=node_1156357908.1.2.3 conn=delta Kv=13.8 Kva=75.0 %R=0.670
~ wdg=2 bus=node_460210529.1.2.3.4 conn=wye Kv=0.2200 Kva=75.0 %R=0.670
New Transformer.365271500_365485256 phases=3 windings=2 Xhl=3.770
~ wdg=1 bus=node_425809642.1.2.3 conn=delta Kv=13.8 Kva=75.0 %R=0.670
~ wdg=2 bus=node_403352130.1.2.3.4 conn=wye Kv=0.2200 Kva=75.0 %R=0.670
New Transformer.1267593144_1267593145 phases=3 windings=2 Xhl=3.770
~ wdg=1 bus=node_1566142173.1.2.3 conn=delta Kv=13.8 Kva=75.0 %R=0.670
~ wdg=2 bus=node_1566142537.1.2.3.4 conn=wye Kv=0.2200 Kva=75.0 %R=0.670
New Transformer.365271548_365481007 phases=3 windings=2 Xhl=3.770
~ wdg=1 bus=node_437966119.1.2.3 conn=delta Kv=13.8 Kva=75.0 %R=0.670
~ wdg=2 bus=node_403349196.1.2.3.4 conn=wye Kv=0.2200 Kva=75.0 %R=0.670
New Transformer.931560496_931560495 phases=3 windings=2 Xhl=3.770
~ wdg=1 bus=node_427822046.1.2.3 conn=delta Kv=13.8 Kva=75.0 %R=0.670
~ wdg=2 bus=node_415525593.1.2.3.4 conn=wye Kv=0.2200 Kva=75.0 %R=0.670
New Transformer.326580811_326906136 phases=3 windings=2 Xhl=3.770
~ wdg=1 bus=node_427981624.1.2.3 conn=delta Kv=13.8 Kva=75.0 %R=0.670
~ wdg=2 bus=node_413011070.1.2.3.4 conn=wye Kv=0.2200 Kva=75.0 %R=0.670
New Transformer.326581495_326944717 phases=3 windings=2 Xhl=3.770
~ wdg=1 bus=node_427823529.1.2.3 conn=delta Kv=13.8 Kva=75.0 %R=0.670
~ wdg=2 bus=node_415617815.1.2.3.4 conn=wye Kv=0.2200 Kva=75.0 %R=0.670
New Transformer.326581320_326904892 phases=3 windings=2 Xhl=3.770
~ wdg=1 bus=node_428781240.1.2.3 conn=delta Kv=13.8 Kva=75.0 %R=0.670
~ wdg=2 bus=node_415576586.1.2.3.4 conn=wye Kv=0.2200 Kva=75.0 %R=0.670
New Transformer.326581134_326850511 phases=3 windings=2 Xhl=3.770
~ wdg=1 bus=node_427980194.1.2.3 conn=delta Kv=13.8 Kva=75.0 %R=0.670
~ wdg=2 bus=node_415525110.1.2.3.4 conn=wye Kv=0.2200 Kva=75.0 %R=0.670
New Transformer.326581382_326925809 phases=3 windings=2 Xhl=3.770
~ wdg=1 bus=node_427821801.1.2.3 conn=delta Kv=13.8 Kva=75.0 %R=0.670
~ wdg=2 bus=node_415575965.1.2.3.4 conn=wye Kv=0.2200 Kva=75.0 %R=0.670
New Transformer.365308077_365452807 phases=3 windings=2 Xhl=3.770
~ wdg=1 bus=node_435431127.1.2.3 conn=delta Kv=13.8 Kva=75.0 %R=0.670
~ wdg=2 bus=node_403421563.1.2.3.4 conn=wye Kv=0.2200 Kva=75.0 %R=0.670
New Transformer.365307953_365482004 phases=3 windings=2 Xhl=3.770
~ wdg=1 bus=node_425809826.1.2.3 conn=delta Kv=13.8 Kva=75.0 %R=0.670
~ wdg=2 bus=node_403421911.1.2.3.4 conn=wye Kv=0.2200 Kva=75.0 %R=0.670
New Transformer.365331782_365379821 phases=3 windings=2 Xhl=3.770
~ wdg=1 bus=node_426454531.1.2.3 conn=delta Kv=13.8 Kva=75.0 %R=0.670
~ wdg=2 bus=node_403422076.1.2.3.4 conn=wye Kv=0.2200 Kva=75.0 %R=0.670
New Transformer.1913870215_1913870214 phases=3 windings=2 Xhl=3.770
~ wdg=1 bus=node_2232025649.1.2.3 conn=delta Kv=13.8 Kva=75.0 %R=0.670
~ wdg=2 bus=node_555694679.1.2.3.4 conn=wye Kv=0.2200 Kva=75.0 %R=0.670
New Transformer.326581969_326850502 phases=3 windings=2 Xhl=3.770
~ wdg=1 bus=node_427979689.1.2.3 conn=delta Kv=13.8 Kva=75.0 %R=0.670
~ wdg=2 bus=node_505262003.1.2.3.4 conn=wye Kv=0.2200 Kva=75.0 %R=0.670
New Transformer.326305855_326925806 phases=3 windings=2 Xhl=3.770
~ wdg=1 bus=node_443779455.1.2.3 conn=delta Kv=13.8 Kva=75.0 %R=0.670
~ wdg=2 bus=node_415576874.1.2.3.4 conn=wye Kv=0.2200 Kva=75.0 %R=0.670
New Transformer.326305563_326878579 phases=3 windings=2 Xhl=3.770
~ wdg=1 bus=node_443779641.1.2.3 conn=delta Kv=13.8 Kva=75.0 %R=0.670
~ wdg=2 bus=node_415616315.1.2.3.4 conn=wye Kv=0.2200 Kva=75.0 %R=0.670
New Transformer.326305724_541769686 phases=3 windings=2 Xhl=3.770
~ wdg=1 bus=node_427822316.1.2.3 conn=delta Kv=13.8 Kva=75.0 %R=0.670
~ wdg=2 bus=node_415618898.1.2.3.4 conn=wye Kv=0.2200 Kva=75.0 %R=0.670
New Transformer.326581836_326878580 phases=3 windings=2 Xhl=3.770
~ wdg=1 bus=node_427821556.1.2.3 conn=delta Kv=13.8 Kva=75.0 %R=0.670
~ wdg=2 bus=node_415616390.1.2.3.4 conn=wye Kv=0.2200 Kva=75.0 %R=0.670
New Transformer.326581613_326942929 phases=3 windings=2 Xhl=3.770
~ wdg=1 bus=node_435270963.1.2.3 conn=delta Kv=13.8 Kva=75.0 %R=0.670
~ wdg=2 bus=node_415575155.1.2.3.4 conn=wye Kv=0.2200 Kva=75.0 %R=0.670
New Transformer.1432435600_1432435599 phases=3 windings=2 Xhl=3.770
~ wdg=1 bus=node_1728734456.1.2.3 conn=delta Kv=13.8 Kva=75.0 %R=0.670
~ wdg=2 bus=node_1728734543.1.2.3.4 conn=wye Kv=0.2200 Kva=75.0 %R=0.670
New Transformer.326581510_326906177 phases=3 windings=2 Xhl=3.770
~ wdg=1 bus=node_427822985.1.2.3 conn=delta Kv=13.8 Kva=75.0 %R=0.670
~ wdg=2 bus=node_415525170.1.2.3.4 conn=wye Kv=0.2200 Kva=75.0 %R=0.670
New Transformer.326306687_2381525463 phases=1 windings=3 Xhl=3.770 Xht=3.770 Xlt=1.885
~ wdg=1 bus=node_428781275.2 conn=wye Kv=7.9674 Kva=75.0 %R=0.670
~ wdg=2 bus=node_930003160.1.4 conn=wye Kv=0.1100 Kva=75.0 %R=0.670
~ wdg=3 bus=node_930003160.4.2 conn=wye Kv=0.1100 Kva=75.0 %R=0.670
New Transformer.326306721_1362189947 phases=3 windings=2 Xhl=3.770
~ wdg=1 bus=node_443779430.1.2.3 conn=delta Kv=13.8 Kva=75.0 %R=0.670
~ wdg=2 bus=node_415573397.1.2.3.4 conn=wye Kv=0.2200 Kva=75.0 %R=0.670
New Transformer.326306635_326944712 phases=3 windings=2 Xhl=3.770
~ wdg=1 bus=node_431066040.1.2.3 conn=delta Kv=13.8 Kva=75.0 %R=0.670
~ wdg=2 bus=node_415574672.1.2.3.4 conn=wye Kv=0.2200 Kva=75.0 %R=0.670
New Transformer.326306800_326846762 phases=3 windings=2 Xhl=3.770
~ wdg=1 bus=node_427981169.1.2.3 conn=delta Kv=13.8 Kva=75.0 %R=0.670
~ wdg=2 bus=node_415573625.1.2.3.4 conn=wye Kv=0.2200 Kva=75.0 %R=0.670
New Transformer.326582107_326846776 phases=3 windings=2 Xhl=3.770
~ wdg=1 bus=node_443779870.1.2.3 conn=delta Kv=13.8 Kva=75.0 %R=0.670
~ wdg=2 bus=node_415616279.1.2.3.4 conn=wye Kv=0.2200 Kva=75.0 %R=0.670
New Transformer.326583017_326925800 phases=3 windings=2 Xhl=3.770
~ wdg=1 bus=node_427823040.1.2.3 conn=delta Kv=13.8 Kva=75.0 %R=0.670
~ wdg=2 bus=node_415573367.1.2.3.4 conn=wye Kv=0.2200 Kva=75.0 %R=0.670
New Transformer.326583071_326944554 phases=3 windings=2 Xhl=3.770
~ wdg=1 bus=node_441728328.1.2.3 conn=delta Kv=13.8 Kva=75.0 %R=0.670
~ wdg=2 bus=node_415669318.1.2.3.4 conn=wye Kv=0.2200 Kva=75.0 %R=0.670
New Transformer.326307066_326925810 phases=3 windings=2 Xhl=3.770
~ wdg=1 bus=node_435271074.1.2.3 conn=delta Kv=13.8 Kva=75.0 %R=0.670
~ wdg=2 bus=node_501129981.1.2.3.4 conn=wye Kv=0.2200 Kva=75.0 %R=0.670
New Transformer.326307297_326848684 phases=3 windings=2 Xhl=3.770
~ wdg=1 bus=node_428781095.1.2.3 conn=delta Kv=13.8 Kva=75.0 %R=0.670
~ wdg=2 bus=node_416547769.1.2.3.4 conn=wye Kv=0.2200 Kva=75.0 %R=0.670
New Transformer.326582355_326846763 phases=3 windings=2 Xhl=3.770
~ wdg=1 bus=node_443780418.1.2.3 conn=delta Kv=13.8 Kva=75.0 %R=0.670
~ wdg=2 bus=node_462297048.1.2.3.4 conn=wye Kv=0.2200 Kva=75.0 %R=0.670
New Transformer.326582281_326880528 phases=3 windings=2 Xhl=3.770
~ wdg=1 bus=node_431225069.1.2.3 conn=delta Kv=13.8 Kva=75.0 %R=0.670
~ wdg=2 bus=node_512733614.1.2.3.4 conn=wye Kv=0.2200 Kva=75.0 %R=0.670
New Transformer.326583642_326879379 phases=3 windings=2 Xhl=3.770
~ wdg=1 bus=node_427822880.1.2.3 conn=delta Kv=13.8 Kva=75.0 %R=0.670
~ wdg=2 bus=node_417434538.1.2.3.4 conn=wye Kv=0.2200 Kva=75.0 %R=0.670
New Transformer.365310469_365481028 phases=3 windings=2 Xhl=3.770
~ wdg=1 bus=node_426454551.1.2.3 conn=delta Kv=13.8 Kva=75.0 %R=0.670
~ wdg=2 bus=node_403422601.1.2.3.4 conn=wye Kv=0.2200 Kva=75.0 %R=0.670
New Transformer.326308103_326903224 phases=3 windings=2 Xhl=3.770
~ wdg=1 bus=node_443779621.1.2.3 conn=delta Kv=13.8 Kva=75.0 %R=0.670
~ wdg=2 bus=node_415573607.1.2.3.4 conn=wye Kv=0.2200 Kva=75.0 %R=0.670
New Transformer.326583860_326941568 phases=3 windings=2 Xhl=3.770
~ wdg=1 bus=node_427822496.1.2.3 conn=delta Kv=13.8 Kva=75.0 %R=0.670
~ wdg=2 bus=node_415576886.1.2.3.4 conn=wye Kv=0.2200 Kva=75.0 %R=0.670
New Transformer.326584427_326850499 phases=3 windings=2 Xhl=3.770
~ wdg=1 bus=node_443779925.1.2.3 conn=delta Kv=13.8 Kva=75.0 %R=0.670
~ wdg=2 bus=node_415577279.1.2.3.4 conn=wye Kv=0.2200 Kva=75.0 %R=0.670
New Transformer.326584410_326848239 phases=3 windings=2 Xhl=3.770
~ wdg=1 bus=node_1313573270.1.2.3 conn=delta Kv=13.8 Kva=75.0 %R=0.670
~ wdg=2 bus=node_1313573464.1.2.3.4 conn=wye Kv=0.2200 Kva=75.0 %R=0.670
New Transformer.326584413_326903218 phases=3 windings=2 Xhl=3.770
~ wdg=1 bus=node_428940732.1.2.3 conn=delta Kv=13.8 Kva=75.0 %R=0.670
~ wdg=2 bus=node_415618886.1.2.3.4 conn=wye Kv=0.2200 Kva=75.0 %R=0.670
New Transformer.365311292_365481026 phases=3 windings=2 Xhl=3.770
~ wdg=1 bus=node_425809602.1.2.3 conn=delta Kv=13.8 Kva=75.0 %R=0.670
~ wdg=2 bus=node_403422658.1.2.3.4 conn=wye Kv=0.2200 Kva=75.0 %R=0.670
New Transformer.365349743_365475386 phases=3 windings=2 Xhl=3.770
~ wdg=1 bus=node_425982359.1.2.3 conn=delta Kv=13.8 Kva=75.0 %R=0.670
~ wdg=2 bus=node_403352532.1.2.3.4 conn=wye Kv=0.2200 Kva=75.0 %R=0.670
New Transformer.326672529_326904889 phases=3 windings=2 Xhl=3.770
~ wdg=1 bus=node_428780999.1.2.3 conn=delta Kv=13.8 Kva=75.0 %R=0.670
~ wdg=2 bus=node_415617026.1.2.3.4 conn=wye Kv=0.2200 Kva=75.0 %R=0.670
New Transformer.567649634_567649633 phases=3 windings=2 Xhl=3.770
~ wdg=1 bus=node_835947363.1.2.3 conn=delta Kv=13.8 Kva=75.0 %R=0.670
~ wdg=2 bus=node_555877813.1.2.3.4 conn=wye Kv=0.2200 Kva=75.0 %R=0.670
New Transformer.365376656_2072383162 phases=3 windings=2 Xhl=3.770
~ wdg=1 bus=node_431504952.1.2.3 conn=delta Kv=13.8 Kva=75.0 %R=0.670
~ wdg=2 bus=node_403349544.1.2.3.4 conn=wye Kv=0.2200 Kva=75.0 %R=0.670
New Transformer.326673391_326846769 phases=3 windings=2 Xhl=3.770
~ wdg=1 bus=node_428781495.1.2.3 conn=delta Kv=13.8 Kva=75.0 %R=0.670
~ wdg=2 bus=node_415525488.1.2.3.4 conn=wye Kv=0.2200 Kva=75.0 %R=0.670
New Transformer.326673061_326925803 phases=3 windings=2 Xhl=3.770
~ wdg=1 bus=node_443779491.1.2.3 conn=delta Kv=13.8 Kva=75.0 %R=0.670
~ wdg=2 bus=node_415616780.1.2.3.4 conn=wye Kv=0.2200 Kva=75.0 %R=0.670
New Transformer.365378140_365379822 phases=3 windings=2 Xhl=3.770
~ wdg=1 bus=node_438111144.1.2.3 conn=delta Kv=13.8 Kva=75.0 %R=0.670
~ wdg=2 bus=node_403421482.1.2.3.4 conn=wye Kv=0.2200 Kva=75.0 %R=0.670
New Transformer.365378696_365475385 phases=3 windings=2 Xhl=3.770
~ wdg=1 bus=node_426456171.1.2.3 conn=delta Kv=13.8 Kva=75.0 %R=0.670
~ wdg=2 bus=node_403422094.1.2.3.4 conn=wye Kv=0.2200 Kva=75.0 %R=0.670
New Transformer.326673500_326846777 phases=3 windings=2 Xhl=3.770
~ wdg=1 bus=node_427823465.1.2.3 conn=delta Kv=13.8 Kva=75.0 %R=0.670
~ wdg=2 bus=node_415617845.1.2.3.4 conn=wye Kv=0.2200 Kva=75.0 %R=0.670
New Transformer.326670754_326846890 phases=3 windings=2 Xhl=3.770
~ wdg=1 bus=node_442143649.1.2.3 conn=delta Kv=13.8 Kva=75.0 %R=0.670
~ wdg=2 bus=node_415670557.1.2.3.4 conn=wye Kv=0.2200 Kva=75.0 %R=0.670
New Transformer.326670344_326944709 phases=3 windings=2 Xhl=3.770
~ wdg=1 bus=node_427979154.1.2.3 conn=delta Kv=13.8 Kva=75.0 %R=0.670
~ wdg=2 bus=node_415575224.1.2.3.4 conn=wye Kv=0.2200 Kva=75.0 %R=0.670
New Transformer.326674282_326941562 phases=3 windings=2 Xhl=3.770
~ wdg=1 bus=node_443780085.1.2.3 conn=delta Kv=13.8 Kva=75.0 %R=0.670
~ wdg=2 bus=node_415573442.1.2.3.4 conn=wye Kv=0.2200 Kva=75.0 %R=0.670
New Transformer.326672049_1808598550 phases=3 windings=2 Xhl=3.770
~ wdg=1 bus=node_427822196.1.2.3 conn=delta Kv=13.8 Kva=75.0 %R=0.670
~ wdg=2 bus=node_415525140.1.2.3.4 conn=wye Kv=0.2200 Kva=75.0 %R=0.670
New Transformer.326671207_326850507 phases=3 windings=2 Xhl=3.770
~ wdg=1 bus=node_427979504.1.2.3 conn=delta Kv=13.8 Kva=75.0 %R=0.670
~ wdg=2 bus=node_415526043.1.2.3.4 conn=wye Kv=0.2200 Kva=75.0 %R=0.670
New Transformer.326164971_911513144 phases=3 windings=2 Xhl=3.770
~ wdg=1 bus=node_427823429.1.2.3 conn=delta Kv=13.8 Kva=75.0 %R=0.670
~ wdg=2 bus=node_415617809.1.2.3.4 conn=wye Kv=0.2200 Kva=75.0 %R=0.670
New Transformer.326165241_2334664976 phases=3 windings=2 Xhl=3.770
~ wdg=1 bus=node_427823110.1.2.3 conn=delta Kv=13.8 Kva=75.0 %R=0.670
~ wdg=2 bus=node_415525599.1.2.3.4 conn=wye Kv=0.2200 Kva=75.0 %R=0.670
New Transformer.326165243_2599901084 phases=3 windings=2 Xhl=3.770
~ wdg=1 bus=node_427822651.1.2.3 conn=delta Kv=13.8 Kva=75.0 %R=0.670
~ wdg=2 bus=node_415616765.1.2.3.4 conn=wye Kv=0.2200 Kva=75.0 %R=0.670
New Transformer.326165252_326903221 phases=3 windings=2 Xhl=3.770
~ wdg=1 bus=node_427980999.1.2.3 conn=delta Kv=13.8 Kva=75.0 %R=0.670
~ wdg=2 bus=node_415573583.1.2.3.4 conn=wye Kv=0.2200 Kva=75.0 %R=0.670
New Transformer.326163670_326903223 phases=3 windings=2 Xhl=3.770
~ wdg=1 bus=node_443779605.1.2.3 conn=delta Kv=13.8 Kva=75.0 %R=0.670
~ wdg=2 bus=node_415573577.1.2.3.4 conn=wye Kv=0.2200 Kva=75.0 %R=0.670
New Transformer.326163709_326847383 phases=3 windings=2 Xhl=3.770
~ wdg=1 bus=node_427822136.1.2.3 conn=delta Kv=13.8 Kva=75.0 %R=0.670
~ wdg=2 bus=node_415525503.1.2.3.4 conn=wye Kv=0.2200 Kva=75.0 %R=0.670
New Transformer.326164592_1938813998 phases=3 windings=2 Xhl=3.770
~ wdg=1 bus=node_427980609.1.2.3 conn=delta Kv=13.8 Kva=75.0 %R=0.670
~ wdg=2 bus=node_415577201.1.2.3.4 conn=wye Kv=0.2200 Kva=75.0 %R=0.670
New Transformer.326165902_326879322 phases=3 windings=2 Xhl=3.770
~ wdg=1 bus=node_427979644.1.2.3 conn=delta Kv=13.8 Kva=75.0 %R=0.670
~ wdg=2 bus=node_415574693.1.2.3.4 conn=wye Kv=0.2200 Kva=75.0 %R=0.670
New Transformer.326166500_326878456 phases=3 windings=2 Xhl=3.770
~ wdg=1 bus=node_441585201.1.2.3 conn=delta Kv=13.8 Kva=75.0 %R=0.670
~ wdg=2 bus=node_415724644.1.2.3.4 conn=wye Kv=0.2200 Kva=75.0 %R=0.670
New Transformer.326165729_1946706375 phases=3 windings=2 Xhl=3.770
~ wdg=1 bus=node_427821991.1.2.3 conn=delta Kv=13.8 Kva=75.0 %R=0.670
~ wdg=2 bus=node_415524117.1.2.3.4 conn=wye Kv=0.2200 Kva=75.0 %R=0.670
New Transformer.326165464_326904904 phases=3 windings=2 Xhl=3.770
~ wdg=1 bus=node_443780409.1.2.3 conn=delta Kv=13.8 Kva=75.0 %R=0.670
~ wdg=2 bus=node_415576577.1.2.3.4 conn=wye Kv=0.2200 Kva=75.0 %R=0.670
New Transformer.326164485_326904903 phases=3 windings=2 Xhl=3.770
~ wdg=1 bus=node_427980759.1.2.3 conn=delta Kv=13.8 Kva=75.0 %R=0.670
~ wdg=2 bus=node_415573448.1.2.3.4 conn=wye Kv=0.2200 Kva=75.0 %R=0.670
New Transformer.2559284581_2559284580 phases=3 windings=2 Xhl=4.960
~ wdg=1 bus=node_110213757.1.2.3 conn=delta Kv=13.8 Kva=75.0 %R=0.305
~ wdg=2 bus=node_2699677394.1.2.3.4 conn=wye Kv=0.2200 Kva=75.0 %R=0.305
New Transformer.326308689_326846773 phases=3 windings=2 Xhl=3.700
~ wdg=1 bus=node_427979804.1.2.3 conn=delta Kv=13.8 Kva=45.0 %R=0.760
~ wdg=2 bus=node_415616813.1.2.3.4 conn=wye Kv=0.2200 Kva=45.0 %R=0.760
New Transformer.326308685_326942809 phases=3 windings=2 Xhl=3.700
~ wdg=1 bus=node_427823470.1.2.3 conn=delta Kv=13.8 Kva=45.0 %R=0.760
~ wdg=2 bus=node_417412409.1.2.3.4 conn=wye Kv=0.2200 Kva=45.0 %R=0.760
New Transformer.326308737_326850530 phases=3 windings=2 Xhl=3.700
~ wdg=1 bus=node_441582740.1.2.3 conn=delta Kv=13.8 Kva=45.0 %R=0.760
~ wdg=2 bus=node_415669561.1.2.3.4 conn=wye Kv=0.2200 Kva=45.0 %R=0.760
New Transformer.326309023_1399496243 phases=3 windings=2 Xhl=3.700
~ wdg=1 bus=node_429428667.1.2.3 conn=delta Kv=13.8 Kva=45.0 %R=0.760
~ wdg=2 bus=node_417169869.1.2.3.4 conn=wye Kv=0.2200 Kva=45.0 %R=0.760
New Transformer.326309151_326942877 phases=3 windings=2 Xhl=3.700
~ wdg=1 bus=node_427822001.1.2.3 conn=delta Kv=13.8 Kva=45.0 %R=0.760
~ wdg=2 bus=node_415523184.1.2.3.4 conn=wye Kv=0.2200 Kva=45.0 %R=0.760
New Transformer.325742441_326941577 phases=3 windings=2 Xhl=3.700
~ wdg=1 bus=node_442143304.1.2.3 conn=delta Kv=13.8 Kva=45.0 %R=0.760
~ wdg=2 bus=node_411995943.1.2.3.4 conn=wye Kv=0.2200 Kva=45.0 %R=0.760
New Transformer.326166698_326906154 phases=3 windings=2 Xhl=3.700
~ wdg=1 bus=node_427822301.1.2.3 conn=delta Kv=13.8 Kva=45.0 %R=0.760
~ wdg=2 bus=node_417436479.1.2.3.4 conn=wye Kv=0.2200 Kva=45.0 %R=0.760
New Transformer.326166860_326905273 phases=3 windings=2 Xhl=3.700
~ wdg=1 bus=node_428780940.1.2.3 conn=delta Kv=13.8 Kva=45.0 %R=0.760
~ wdg=2 bus=node_415670737.1.2.3.4 conn=wye Kv=0.2200 Kva=45.0 %R=0.760
New Transformer.326166970_326925796 phases=3 windings=2 Xhl=3.700
~ wdg=1 bus=node_443780170.1.2.3 conn=delta Kv=13.8 Kva=45.0 %R=0.760
~ wdg=2 bus=node_415524135.1.2.3.4 conn=wye Kv=0.2200 Kva=45.0 %R=0.760
New Transformer.326167112_326878578 phases=3 windings=2 Xhl=3.700
~ wdg=1 bus=node_428781440.1.2.3 conn=delta Kv=13.8 Kva=45.0 %R=0.760
~ wdg=2 bus=node_415576499.1.2.3.4 conn=wye Kv=0.2200 Kva=45.0 %R=0.760
New Transformer.989475168_989475167 phases=3 windings=2 Xhl=3.700
~ wdg=1 bus=node_1251607144.1.2.3 conn=delta Kv=13.8 Kva=45.0 %R=0.760
~ wdg=2 bus=node_1251606954.1.2.3.4 conn=wye Kv=0.2200 Kva=45.0 %R=0.760
New Transformer.326167124_326903211 phases=3 windings=2 Xhl=3.700
~ wdg=1 bus=node_427979034.1.2.3 conn=delta Kv=13.8 Kva=45.0 %R=0.760
~ wdg=2 bus=node_415616303.1.2.3.4 conn=wye Kv=0.2200 Kva=45.0 %R=0.760
New Transformer.326443201_326848181 phases=3 windings=2 Xhl=3.700
~ wdg=1 bus=node_429427958.1.2.3 conn=delta Kv=13.8 Kva=45.0 %R=0.760
~ wdg=2 bus=node_417414227.1.2.3.4 conn=wye Kv=0.2200 Kva=45.0 %R=0.760
New Transformer.326167221_326846770 phases=3 windings=2 Xhl=3.700
~ wdg=1 bus=node_427979919.1.2.3 conn=delta Kv=13.8 Kva=45.0 %R=0.760
~ wdg=2 bus=node_415573580.1.2.3.4 conn=wye Kv=0.2200 Kva=45.0 %R=0.760
New Transformer.326443220_326941576 phases=3 windings=2 Xhl=3.700
~ wdg=1 bus=node_428781605.1.2.3 conn=delta Kv=13.8 Kva=45.0 %R=0.760
~ wdg=2 bus=node_415618748.1.2.3.4 conn=wye Kv=0.2200 Kva=45.0 %R=0.760
New Transformer.326167475_326879849 phases=3 windings=2 Xhl=3.700
~ wdg=1 bus=node_441728753.1.2.3 conn=delta Kv=13.8 Kva=45.0 %R=0.760
~ wdg=2 bus=node_415576589.1.2.3.4 conn=wye Kv=0.2200 Kva=45.0 %R=0.760
New Transformer.326443572_1682101528 phases=3 windings=2 Xhl=3.700
~ wdg=1 bus=node_2006272797.1.2.3 conn=delta Kv=13.8 Kva=45.0 %R=0.760
~ wdg=2 bus=node_2006272775.1.2.3.4 conn=wye Kv=0.2200 Kva=45.0 %R=0.760
New Transformer.326167629_326906298 phases=3 windings=2 Xhl=3.700
~ wdg=1 bus=node_435270444.1.2.3 conn=delta Kv=13.8 Kva=45.0 %R=0.760
~ wdg=2 bus=node_417396260.1.2.3.4 conn=wye Kv=0.2200 Kva=45.0 %R=0.760
New Transformer.326167925_326878586 phases=3 windings=2 Xhl=3.700
~ wdg=1 bus=node_427823115.1.2.3 conn=delta Kv=13.8 Kva=45.0 %R=0.760
~ wdg=2 bus=node_415525107.1.2.3.4 conn=wye Kv=0.2200 Kva=45.0 %R=0.760
New Transformer.326443786_1999466748 phases=3 windings=2 Xhl=3.700
~ wdg=1 bus=node_443780513.1.2.3 conn=delta Kv=13.8 Kva=45.0 %R=0.760
~ wdg=2 bus=node_415525506.1.2.3.4 conn=wye Kv=0.2200 Kva=45.0 %R=0.760
New Transformer.326443980_326849231 phases=3 windings=2 Xhl=3.700
~ wdg=1 bus=node_435270659.1.2.3 conn=delta Kv=13.8 Kva=45.0 %R=0.760
~ wdg=2 bus=node_417395459.1.2.3.4 conn=wye Kv=0.2200 Kva=45.0 %R=0.760
New Transformer.326444289_326880376 phases=3 windings=2 Xhl=3.700
~ wdg=1 bus=node_427823540.1.2.3 conn=delta Kv=13.8 Kva=45.0 %R=0.760
~ wdg=2 bus=node_417287518.1.2.3.4 conn=wye Kv=0.2200 Kva=45.0 %R=0.760
New Transformer.326444638_326850501 phases=3 windings=2 Xhl=3.700
~ wdg=1 bus=node_427821781.1.2.3 conn=delta Kv=13.8 Kva=45.0 %R=0.760
~ wdg=2 bus=node_415575974.1.2.3.4 conn=wye Kv=0.2200 Kva=45.0 %R=0.760
New Transformer.326444807_326927541 phases=3 windings=2 Xhl=3.700
~ wdg=1 bus=node_435271054.1.2.3 conn=delta Kv=13.8 Kva=45.0 %R=0.760
~ wdg=2 bus=node_417170232.1.2.3.4 conn=wye Kv=0.2200 Kva=45.0 %R=0.760
New Transformer.326445137_326904902 phases=3 windings=2 Xhl=3.700
~ wdg=1 bus=node_443780339.1.2.3 conn=delta Kv=13.8 Kva=45.0 %R=0.760
~ wdg=2 bus=node_415576571.1.2.3.4 conn=wye Kv=0.2200 Kva=45.0 %R=0.760
New Transformer.326445450_326944711 phases=3 windings=2 Xhl=3.700
~ wdg=1 bus=node_427823169.1.2.3 conn=delta Kv=13.8 Kva=45.0 %R=0.760
~ wdg=2 bus=node_415525491.1.2.3.4 conn=wye Kv=0.2200 Kva=45.0 %R=0.760
New Transformer.326445796_326903202 phases=3 windings=2 Xhl=3.700
~ wdg=1 bus=node_431064741.1.2.3 conn=delta Kv=13.8 Kva=45.0 %R=0.760
~ wdg=2 bus=node_415669549.1.2.3.4 conn=wye Kv=0.2200 Kva=45.0 %R=0.760
New Transformer.2199356834_2199356833 phases=3 windings=2 Xhl=3.700
~ wdg=1 bus=node_2504978091.1.2.3 conn=delta Kv=13.8 Kva=45.0 %R=0.760
~ wdg=2 bus=node_459061306.1.2.3.4 conn=wye Kv=0.2200 Kva=45.0 %R=0.760
New Transformer.2202053702_2202053701 phases=3 windings=2 Xhl=3.700
~ wdg=1 bus=node_2507679419.1.2.3 conn=delta Kv=13.8 Kva=45.0 %R=0.760
~ wdg=2 bus=node_2507679398.1.2.3.4 conn=wye Kv=0.2200 Kva=45.0 %R=0.760
New Transformer.326446254_326850514 phases=3 windings=2 Xhl=3.700
~ wdg=1 bus=node_427980919.1.2.3 conn=delta Kv=13.8 Kva=45.0 %R=0.760
~ wdg=2 bus=node_415575161.1.2.3.4 conn=wye Kv=0.2200 Kva=45.0 %R=0.760
New Transformer.326446220_326880457 phases=3 windings=2 Xhl=3.700
~ wdg=1 bus=node_435271328.1.2.3 conn=delta Kv=13.8 Kva=45.0 %R=0.760
~ wdg=2 bus=node_417395498.1.2.3.4 conn=wye Kv=0.2200 Kva=45.0 %R=0.760
New Transformer.326446334_326941561 phases=3 windings=2 Xhl=3.700
~ wdg=1 bus=node_427980144.1.2.3 conn=delta Kv=13.8 Kva=45.0 %R=0.760
~ wdg=2 bus=node_415523190.1.2.3.4 conn=wye Kv=0.2200 Kva=45.0 %R=0.760
New Transformer.326446571_326925808 phases=3 windings=2 Xhl=3.700
~ wdg=1 bus=node_999497324.1.2.3 conn=delta Kv=13.8 Kva=45.0 %R=0.760
~ wdg=2 bus=node_999497223.1.2.3.4 conn=wye Kv=0.2200 Kva=45.0 %R=0.760
New Transformer.326446526_326926489 phases=3 windings=2 Xhl=3.700
~ wdg=1 bus=node_427822016.1.2.3 conn=delta Kv=13.8 Kva=45.0 %R=0.760
~ wdg=2 bus=node_415525500.1.2.3.4 conn=wye Kv=0.2200 Kva=45.0 %R=0.760
New Transformer.326446577_326941563 phases=3 windings=2 Xhl=3.700
~ wdg=1 bus=node_427980624.1.2.3 conn=delta Kv=13.8 Kva=45.0 %R=0.760
~ wdg=2 bus=node_415573382.1.2.3.4 conn=wye Kv=0.2200 Kva=45.0 %R=0.760
New Transformer.326446668_326924525 phases=3 windings=2 Xhl=3.700
~ wdg=1 bus=node_435271094.1.2.3 conn=delta Kv=13.8 Kva=45.0 %R=0.760
~ wdg=2 bus=node_415525173.1.2.3.4 conn=wye Kv=0.2200 Kva=45.0 %R=0.760
New Transformer.326446615_326880347 phases=3 windings=2 Xhl=3.700
~ wdg=1 bus=node_427822701.1.2.3 conn=delta Kv=13.8 Kva=45.0 %R=0.760
~ wdg=2 bus=node_417434742.1.2.3.4 conn=wye Kv=0.2200 Kva=45.0 %R=0.760
New Transformer.2213669040_2213669039 phases=3 windings=2 Xhl=3.700
~ wdg=1 bus=node_2519105920.1.2.3 conn=delta Kv=13.8 Kva=45.0 %R=0.760
~ wdg=2 bus=node_2519105789.1.2.3.4 conn=wye Kv=0.2200 Kva=45.0 %R=0.760
New Transformer.326446780_326849128 phases=3 windings=2 Xhl=3.700
~ wdg=1 bus=node_427821906.1.2.3 conn=delta Kv=13.8 Kva=45.0 %R=0.760
~ wdg=2 bus=node_417434709.1.2.3.4 conn=wye Kv=0.2200 Kva=45.0 %R=0.760
New Transformer.326446897_1645117281 phases=3 windings=2 Xhl=3.700
~ wdg=1 bus=node_442142644.1.2.3 conn=delta Kv=13.8 Kva=45.0 %R=0.760
~ wdg=2 bus=node_417249030.1.2.3.4 conn=wye Kv=0.2200 Kva=45.0 %R=0.760
New Transformer.326446752_326941571 phases=3 windings=2 Xhl=3.700
~ wdg=1 bus=node_427822355.1.2.3 conn=delta Kv=13.8 Kva=45.0 %R=0.760
~ wdg=2 bus=node_415618901.1.2.3.4 conn=wye Kv=0.2200 Kva=45.0 %R=0.760
New Transformer.326446980_326903225 phases=3 windings=2 Xhl=3.700
~ wdg=1 bus=node_427978959.1.2.3 conn=delta Kv=13.8 Kva=45.0 %R=0.760
~ wdg=2 bus=node_415573400.1.2.3.4 conn=wye Kv=0.2200 Kva=45.0 %R=0.760
New Transformer.326446982_326941604 phases=3 windings=2 Xhl=3.700
~ wdg=1 bus=node_441729753.1.2.3 conn=delta Kv=13.8 Kva=45.0 %R=0.760
~ wdg=2 bus=node_415724809.1.2.3.4 conn=wye Kv=0.2200 Kva=45.0 %R=0.760
New Transformer.326447045_326880348 phases=3 windings=2 Xhl=3.700
~ wdg=1 bus=node_427980944.1.2.3 conn=delta Kv=13.8 Kva=45.0 %R=0.760
~ wdg=2 bus=node_417436470.1.2.3.4 conn=wye Kv=0.2200 Kva=45.0 %R=0.760
New Transformer.2230041718_2230041719 phases=3 windings=2 Xhl=3.700
~ wdg=1 bus=node_2535654351.1.2.3 conn=delta Kv=13.8 Kva=45.0 %R=0.760
~ wdg=2 bus=node_2535654318.1.2.3.4 conn=wye Kv=0.2200 Kva=45.0 %R=0.760
New Transformer.1051806757_1051806756 phases=3 windings=2 Xhl=3.700
~ wdg=1 bus=node_427824035.1.2.3 conn=delta Kv=13.8 Kva=45.0 %R=0.760
~ wdg=2 bus=node_459061227.1.2.3.4 conn=wye Kv=0.2200 Kva=45.0 %R=0.760
New Transformer.1073238169_1073238168 phases=3 windings=2 Xhl=3.700
~ wdg=1 bus=node_441812734.1.2.3 conn=delta Kv=13.8 Kva=45.0 %R=0.760
~ wdg=2 bus=node_404633725.1.2.3.4 conn=wye Kv=0.2200 Kva=45.0 %R=0.760
New Transformer.1066926358_1066926359 phases=3 windings=2 Xhl=3.700
~ wdg=1 bus=node_1333919655.1.2.3 conn=delta Kv=13.8 Kva=45.0 %R=0.760
~ wdg=2 bus=node_403350141.1.2.3.4 conn=wye Kv=0.2200 Kva=45.0 %R=0.760
New Transformer.1119063845_1119063844 phases=3 windings=2 Xhl=3.700
~ wdg=1 bus=node_1388216317.1.2.3 conn=delta Kv=13.8 Kva=45.0 %R=0.760
~ wdg=2 bus=node_460959791.1.2.3.4 conn=wye Kv=0.2200 Kva=45.0 %R=0.760
New Transformer.649407459_649407458 phases=3 windings=2 Xhl=3.700
~ wdg=1 bus=node_918138893.1.2.3 conn=delta Kv=13.8 Kva=45.0 %R=0.760
~ wdg=2 bus=node_918138825.1.2.3.4 conn=wye Kv=0.2200 Kva=45.0 %R=0.760
New Transformer.1126951920_1126951919 phases=3 windings=2 Xhl=3.700
~ wdg=1 bus=node_1467977046.1.2.3 conn=delta Kv=13.8 Kva=45.0 %R=0.760
~ wdg=2 bus=node_1467977009.1.2.3.4 conn=wye Kv=0.2200 Kva=45.0 %R=0.760
New Transformer.1131117066_1131117065 phases=3 windings=2 Xhl=3.700
~ wdg=1 bus=node_1400604315.1.2.3 conn=delta Kv=13.8 Kva=45.0 %R=0.760
~ wdg=2 bus=node_460210554.1.2.3.4 conn=wye Kv=0.2200 Kva=45.0 %R=0.760
New Transformer.860311534_860311533 phases=3 windings=2 Xhl=3.700
~ wdg=1 bus=node_1128450414.1.2.3 conn=delta Kv=13.8 Kva=45.0 %R=0.760
~ wdg=2 bus=node_1128450347.1.2.3.4 conn=wye Kv=0.2200 Kva=45.0 %R=0.760
New Transformer.741513688_741513687 phases=3 windings=2 Xhl=3.700
~ wdg=1 bus=node_427823974.1.2.3 conn=delta Kv=13.8 Kva=45.0 %R=0.760
~ wdg=2 bus=node_415668331.1.2.3.4 conn=wye Kv=0.2200 Kva=45.0 %R=0.760
New Transformer.728464277_728464276 phases=3 windings=2 Xhl=3.700
~ wdg=1 bus=node_1002481637.1.2.3 conn=delta Kv=13.8 Kva=45.0 %R=0.760
~ wdg=2 bus=node_1002481715.1.2.3.4 conn=wye Kv=0.2200 Kva=45.0 %R=0.760
New Transformer.878011880_878011881 phases=3 windings=2 Xhl=3.700
~ wdg=1 bus=node_1144012654.1.2.3 conn=delta Kv=13.8 Kva=45.0 %R=0.760
~ wdg=2 bus=node_1144012705.1.2.3.4 conn=wye Kv=0.2200 Kva=45.0 %R=0.760
New Transformer.878012070_878012071 phases=3 windings=2 Xhl=3.700
~ wdg=1 bus=node_1144013090.1.2.3 conn=delta Kv=13.8 Kva=45.0 %R=0.760
~ wdg=2 bus=node_1144013124.1.2.3.4 conn=wye Kv=0.2200 Kva=45.0 %R=0.760
New Transformer.878012378_878012379 phases=3 windings=2 Xhl=3.700
~ wdg=1 bus=node_1144013800.1.2.3 conn=delta Kv=13.8 Kva=45.0 %R=0.760
~ wdg=2 bus=node_1144013788.1.2.3.4 conn=wye Kv=0.2200 Kva=45.0 %R=0.760
New Transformer.729606629_729606628 phases=3 windings=2 Xhl=3.700
~ wdg=1 bus=node_1003774349.1.2.3 conn=delta Kv=13.8 Kva=45.0 %R=0.760
~ wdg=2 bus=node_1003774401.1.2.3.4 conn=wye Kv=0.2200 Kva=45.0 %R=0.760
New Transformer.365271214_365481024 phases=3 windings=2 Xhl=3.700
~ wdg=1 bus=node_425810021.1.2.3 conn=delta Kv=13.8 Kva=45.0 %R=0.760
~ wdg=2 bus=node_403422040.1.2.3.4 conn=wye Kv=0.2200 Kva=45.0 %R=0.760
New Transformer.365329723_365483761 phases=3 windings=2 Xhl=3.700
~ wdg=1 bus=node_426456467.1.2.3 conn=delta Kv=13.8 Kva=45.0 %R=0.760
~ wdg=2 bus=node_403422106.1.2.3.4 conn=wye Kv=0.2200 Kva=45.0 %R=0.760
New Transformer.911268390_911268389 phases=3 windings=2 Xhl=3.700
~ wdg=1 bus=node_441861275.1.2.3 conn=delta Kv=13.8 Kva=45.0 %R=0.760
~ wdg=2 bus=node_415669819.1.2.3.4 conn=wye Kv=0.2200 Kva=45.0 %R=0.760
New Transformer.365272470_2072108352 phases=3 windings=2 Xhl=3.700
~ wdg=1 bus=node_441812729.1.2.3 conn=delta Kv=13.8 Kva=45.0 %R=0.760
~ wdg=2 bus=node_403349403.1.2.3.4 conn=wye Kv=0.2200 Kva=45.0 %R=0.760
New Transformer.1846819656_1846819655 phases=3 windings=2 Xhl=3.700
~ wdg=1 bus=node_2168758454.1.2.3 conn=delta Kv=13.8 Kva=45.0 %R=0.760
~ wdg=2 bus=node_2168757814.1.2.3.4 conn=wye Kv=0.2200 Kva=45.0 %R=0.760
New Transformer.1611478253_1611478261 phases=3 windings=2 Xhl=3.700
~ wdg=1 bus=node_1931823994.1.2.3 conn=delta Kv=13.8 Kva=45.0 %R=0.760
~ wdg=2 bus=node_1931823790.1.2.3.4 conn=wye Kv=0.2200 Kva=45.0 %R=0.760
New Transformer.365271703_365481010 phases=3 windings=2 Xhl=3.700
~ wdg=1 bus=node_426923787.1.2.3 conn=delta Kv=13.8 Kva=45.0 %R=0.760
~ wdg=2 bus=node_403349055.1.2.3.4 conn=wye Kv=0.2200 Kva=45.0 %R=0.760
New Transformer.1630951623_1630951622 phases=3 windings=2 Xhl=3.700
~ wdg=1 bus=node_1951108219.1.2.3 conn=delta Kv=13.8 Kva=45.0 %R=0.760
~ wdg=2 bus=node_1951108057.1.2.3.4 conn=wye Kv=0.2200 Kva=45.0 %R=0.760
New Transformer.365331616_365452805 phases=3 windings=2 Xhl=3.700
~ wdg=1 bus=node_425810191.1.2.3 conn=delta Kv=13.8 Kva=45.0 %R=0.760
~ wdg=2 bus=node_403422043.1.2.3.4 conn=wye Kv=0.2200 Kva=45.0 %R=0.760
New Transformer.326580879_326904901 phases=3 windings=2 Xhl=3.700
~ wdg=1 bus=node_427823180.1.2.3 conn=delta Kv=13.8 Kva=45.0 %R=0.760
~ wdg=2 bus=node_415573376.1.2.3.4 conn=wye Kv=0.2200 Kva=45.0 %R=0.760
New Transformer.326580495_326878464 phases=3 windings=2 Xhl=3.700
~ wdg=1 bus=node_427824030.1.2.3 conn=delta Kv=13.8 Kva=45.0 %R=0.760
~ wdg=2 bus=node_415670128.1.2.3.4 conn=wye Kv=0.2200 Kva=45.0 %R=0.760
New Transformer.326580695_975133048 phases=3 windings=2 Xhl=3.700
~ wdg=1 bus=node_443780131.1.2.3 conn=delta Kv=13.8 Kva=45.0 %R=0.760
~ wdg=2 bus=node_415525479.1.2.3.4 conn=wye Kv=0.2200 Kva=45.0 %R=0.760
New Transformer.365331249_365483762 phases=3 windings=2 Xhl=3.700
~ wdg=1 bus=node_435096988.1.2.3 conn=delta Kv=13.8 Kva=45.0 %R=0.760
~ wdg=2 bus=node_403352541.1.2.3.4 conn=wye Kv=0.2200 Kva=45.0 %R=0.760
New Transformer.326580835_326880598 phases=3 windings=2 Xhl=3.700
~ wdg=1 bus=node_429427773.1.2.3 conn=delta Kv=13.8 Kva=45.0 %R=0.760
~ wdg=2 bus=node_415574675.1.2.3.4 conn=wye Kv=0.2200 Kva=45.0 %R=0.760
New Transformer.482873185_482873184 phases=3 windings=2 Xhl=3.700
~ wdg=1 bus=node_442140634.1.2.3 conn=delta Kv=13.8 Kva=45.0 %R=0.760
~ wdg=2 bus=node_415576655.1.2.3.4 conn=wye Kv=0.2200 Kva=45.0 %R=0.760
New Transformer.365330912_365475384 phases=3 windings=2 Xhl=3.700
~ wdg=1 bus=node_426456206.1.2.3 conn=delta Kv=13.8 Kva=45.0 %R=0.760
~ wdg=2 bus=node_403422679.1.2.3.4 conn=wye Kv=0.2200 Kva=45.0 %R=0.760
New Transformer.326581302_326848065 phases=3 windings=2 Xhl=3.700
~ wdg=1 bus=node_427981149.1.2.3 conn=delta Kv=13.8 Kva=45.0 %R=0.760
~ wdg=2 bus=node_417434745.1.2.3.4 conn=wye Kv=0.2200 Kva=45.0 %R=0.760
New Transformer.1899167542_1899167541 phases=3 windings=2 Xhl=3.700
~ wdg=1 bus=node_2218568175.1.2.3 conn=delta Kv=13.8 Kva=45.0 %R=0.760
~ wdg=2 bus=node_2218568191.1.2.3.4 conn=wye Kv=0.2200 Kva=45.0 %R=0.760
New Transformer.326580950_326850504 phases=3 windings=2 Xhl=3.700
~ wdg=1 bus=node_428781365.1.2.3 conn=delta Kv=13.8 Kva=45.0 %R=0.760
~ wdg=2 bus=node_415618904.1.2.3.4 conn=wye Kv=0.2200 Kva=45.0 %R=0.760
New Transformer.365331775_365476728 phases=3 windings=2 Xhl=3.700
~ wdg=1 bus=node_435096993.1.2.3 conn=delta Kv=13.8 Kva=45.0 %R=0.760
~ wdg=2 bus=node_403422082.1.2.3.4 conn=wye Kv=0.2200 Kva=45.0 %R=0.760
New Transformer.365331447_1914441293 phases=3 windings=2 Xhl=3.700
~ wdg=1 bus=node_426923776.1.2.3 conn=delta Kv=13.8 Kva=45.0 %R=0.760
~ wdg=2 bus=node_403349589.1.2.3.4 conn=wye Kv=0.2200 Kva=45.0 %R=0.760
New Transformer.365307773_365483760 phases=3 windings=2 Xhl=3.700
~ wdg=1 bus=node_425810015.1.2.3 conn=delta Kv=13.8 Kva=45.0 %R=0.760
~ wdg=2 bus=node_403421554.1.2.3.4 conn=wye Kv=0.2200 Kva=45.0 %R=0.760
New Transformer.326581664_326904968 phases=3 windings=2 Xhl=3.700
~ wdg=1 bus=node_427979478.1.2.3 conn=delta Kv=13.8 Kva=45.0 %R=0.760
~ wdg=2 bus=node_415671844.1.2.3.4 conn=wye Kv=0.2200 Kva=45.0 %R=0.760
New Transformer.326581674_326942684 phases=3 windings=2 Xhl=3.700
~ wdg=1 bus=node_427822061.1.2.3 conn=delta Kv=13.8 Kva=45.0 %R=0.760
~ wdg=2 bus=node_417470133.1.2.3.4 conn=wye Kv=0.2200 Kva=45.0 %R=0.760
New Transformer.326306698_326925805 phases=3 windings=2 Xhl=3.700
~ wdg=1 bus=node_427823145.1.2.3 conn=delta Kv=13.8 Kva=45.0 %R=0.760
~ wdg=2 bus=node_415575275.1.2.3.4 conn=wye Kv=0.2200 Kva=45.0 %R=0.760
New Transformer.326581731_326927104 phases=3 windings=2 Xhl=3.700
~ wdg=1 bus=node_427980374.1.2.3 conn=delta Kv=13.8 Kva=45.0 %R=0.760
~ wdg=2 bus=node_417434556.1.2.3.4 conn=wye Kv=0.2200 Kva=45.0 %R=0.760
New Transformer.365308878_951928286 phases=3 windings=2 Xhl=3.700
~ wdg=1 bus=node_1251607143.1.2.3 conn=delta Kv=13.8 Kva=45.0 %R=0.760
~ wdg=2 bus=node_403421467.1.2.3.4 conn=wye Kv=0.2200 Kva=45.0 %R=0.760
New Transformer.326582002_1322279007 phases=3 windings=2 Xhl=3.700
~ wdg=1 bus=node_428781085.1.2.3 conn=delta Kv=13.8 Kva=45.0 %R=0.760
~ wdg=2 bus=node_415725544.1.2.3.4 conn=wye Kv=0.2200 Kva=45.0 %R=0.760
New Transformer.326582067_326925807 phases=3 windings=2 Xhl=3.700
~ wdg=1 bus=node_427979364.1.2.3 conn=delta Kv=13.8 Kva=45.0 %R=0.760
~ wdg=2 bus=node_415576511.1.2.3.4 conn=wye Kv=0.2200 Kva=45.0 %R=0.760
New Transformer.326581581_326848130 phases=3 windings=2 Xhl=3.700
~ wdg=1 bus=node_427821646.1.2.3 conn=delta Kv=13.8 Kva=45.0 %R=0.760
~ wdg=2 bus=node_417434544.1.2.3.4 conn=wye Kv=0.2200 Kva=45.0 %R=0.760
New Transformer.326306544_326927800 phases=3 windings=2 Xhl=3.700
~ wdg=1 bus=node_428781570.1.2.3 conn=delta Kv=13.8 Kva=45.0 %R=0.760
~ wdg=2 bus=node_416547274.1.2.3.4 conn=wye Kv=0.2200 Kva=45.0 %R=0.760
New Transformer.326305721_2634193972 phases=3 windings=2 Xhl=3.700
~ wdg=1 bus=node_443779215.1.2.3 conn=delta Kv=13.8 Kva=45.0 %R=0.760
~ wdg=2 bus=node_415575263.1.2.3.4 conn=wye Kv=0.2200 Kva=45.0 %R=0.760
New Transformer.326581558_326927260 phases=3 windings=2 Xhl=3.700
~ wdg=1 bus=node_2168758257.1.2.3 conn=delta Kv=13.8 Kva=45.0 %R=0.760
~ wdg=2 bus=node_2168757871.1.2.3.4 conn=wye Kv=0.2200 Kva=45.0 %R=0.760
New Transformer.326581657_326926488 phases=3 windings=2 Xhl=3.700
~ wdg=1 bus=node_427822220.1.2.3 conn=delta Kv=13.8 Kva=45.0 %R=0.760
~ wdg=2 bus=node_415523085.1.2.3.4 conn=wye Kv=0.2200 Kva=45.0 %R=0.760
New Transformer.365332335_365379831 phases=3 windings=2 Xhl=3.700
~ wdg=1 bus=node_429602529.1.2.3 conn=delta Kv=13.8 Kva=45.0 %R=0.760
~ wdg=2 bus=node_403348860.1.2.3.4 conn=wye Kv=0.2200 Kva=45.0 %R=0.760
New Transformer.326582170_326878590 phases=3 windings=2 Xhl=3.700
~ wdg=1 bus=node_427979429.1.2.3 conn=delta Kv=13.8 Kva=45.0 %R=0.760
~ wdg=2 bus=node_415573457.1.2.3.4 conn=wye Kv=0.2200 Kva=45.0 %R=0.760
New Transformer.365333208_365450846 phases=3 windings=2 Xhl=3.700
~ wdg=1 bus=node_432441206.1.2.3 conn=delta Kv=13.8 Kva=45.0 %R=0.760
~ wdg=2 bus=node_406721838.1.2.3.4 conn=wye Kv=0.2200 Kva=45.0 %R=0.760
New Transformer.365333106_365481025 phases=3 windings=2 Xhl=3.700
~ wdg=1 bus=node_426303832.1.2.3 conn=delta Kv=13.8 Kva=45.0 %R=0.760
~ wdg=2 bus=node_1229862081.1.2.3.4 conn=wye Kv=0.2200 Kva=45.0 %R=0.760
New Transformer.365333131_365482509 phases=3 windings=2 Xhl=3.700
~ wdg=1 bus=node_428202219.1.2.3 conn=delta Kv=13.8 Kva=45.0 %R=0.760
~ wdg=2 bus=node_405465220.1.2.3.4 conn=wye Kv=0.2200 Kva=45.0 %R=0.760
New Transformer.1365827105_1365827104 phases=3 windings=2 Xhl=3.700
~ wdg=1 bus=node_1660541639.1.2.3 conn=delta Kv=13.8 Kva=45.0 %R=0.760
~ wdg=2 bus=node_460787322.1.2.3.4 conn=wye Kv=0.2200 Kva=45.0 %R=0.760
New Transformer.326307348_326942701 phases=3 windings=2 Xhl=3.700
~ wdg=1 bus=node_431229085.1.2.3 conn=delta Kv=13.8 Kva=45.0 %R=0.760
~ wdg=2 bus=node_417453828.1.2.3.4 conn=wye Kv=0.2200 Kva=45.0 %R=0.760
New Transformer.326307349_326942773 phases=3 windings=2 Xhl=3.700
~ wdg=1 bus=node_427980284.1.2.3 conn=delta Kv=13.8 Kva=45.0 %R=0.760
~ wdg=2 bus=node_417450357.1.2.3.4 conn=wye Kv=0.2200 Kva=45.0 %R=0.760
New Transformer.326582431_326944705 phases=3 windings=2 Xhl=3.700
~ wdg=1 bus=node_443779986.1.2.3 conn=delta Kv=13.8 Kva=45.0 %R=0.760
~ wdg=2 bus=node_2519105691.1.2.3.4 conn=wye Kv=0.2200 Kva=45.0 %R=0.760
New Transformer.326582448_326941566 phases=3 windings=2 Xhl=3.700
~ wdg=1 bus=node_427979544.1.2.3 conn=delta Kv=13.8 Kva=45.0 %R=0.760
~ wdg=2 bus=node_415576865.1.2.3.4 conn=wye Kv=0.2200 Kva=45.0 %R=0.760
New Transformer.326307195_462326392 phases=3 windings=2 Xhl=3.700
~ wdg=1 bus=node_427979554.1.2.3 conn=delta Kv=13.8 Kva=45.0 %R=0.760
~ wdg=2 bus=node_415575251.1.2.3.4 conn=wye Kv=0.2200 Kva=45.0 %R=0.760
New Transformer.326307198_326943059 phases=3 windings=2 Xhl=3.700
~ wdg=1 bus=node_435271448.1.2.3 conn=delta Kv=13.8 Kva=45.0 %R=0.760
~ wdg=2 bus=node_417248910.1.2.3.4 conn=wye Kv=0.2200 Kva=45.0 %R=0.760
New Transformer.326582519_326906368 phases=3 windings=2 Xhl=3.700
~ wdg=1 bus=node_435270573.1.2.3 conn=delta Kv=13.8 Kva=45.0 %R=0.760
~ wdg=2 bus=node_417377630.1.2.3.4 conn=wye Kv=0.2200 Kva=45.0 %R=0.760
New Transformer.326582537_326941560 phases=3 windings=2 Xhl=3.700
~ wdg=1 bus=node_427823100.1.2.3 conn=delta Kv=13.8 Kva=45.0 %R=0.760
~ wdg=2 bus=node_415525581.1.2.3.4 conn=wye Kv=0.2200 Kva=45.0 %R=0.760
New Transformer.326583755_326926120 phases=3 windings=2 Xhl=3.700
~ wdg=1 bus=node_428780929.1.2.3 conn=delta Kv=13.8 Kva=45.0 %R=0.760
~ wdg=2 bus=node_415671838.1.2.3.4 conn=wye Kv=0.2200 Kva=45.0 %R=0.760
New Transformer.1960967202_1960967201 phases=3 windings=2 Xhl=3.700
~ wdg=1 bus=node_2278668287.1.2.3 conn=delta Kv=13.8 Kva=45.0 %R=0.760
~ wdg=2 bus=node_2278668229.1.2.3.4 conn=wye Kv=0.2200 Kva=45.0 %R=0.760
New Transformer.982896797_982896796 phases=3 windings=2 Xhl=3.700
~ wdg=1 bus=node_427978969.1.2.3 conn=delta Kv=13.8 Kva=45.0 %R=0.760
~ wdg=2 bus=node_417095213.1.2.3.4 conn=wye Kv=0.2200 Kva=45.0 %R=0.760
New Transformer.326583736_326941558 phases=3 windings=2 Xhl=3.700
~ wdg=1 bus=node_427981049.1.2.3 conn=delta Kv=13.8 Kva=45.0 %R=0.760
~ wdg=2 bus=node_415573622.1.2.3.4 conn=wye Kv=0.2200 Kva=45.0 %R=0.760
New Transformer.326307517_2392015704 phases=3 windings=2 Xhl=3.700
~ wdg=1 bus=node_442143259.1.2.3 conn=delta Kv=13.8 Kva=45.0 %R=0.760
~ wdg=2 bus=node_411995946.1.2.3.4 conn=wye Kv=0.2200 Kva=45.0 %R=0.760
New Transformer.326307605_326846761 phases=3 windings=2 Xhl=3.700
~ wdg=1 bus=node_427979594.1.2.3 conn=delta Kv=13.8 Kva=45.0 %R=0.760
~ wdg=2 bus=node_415574732.1.2.3.4 conn=wye Kv=0.2200 Kva=45.0 %R=0.760
New Transformer.365346916_365379840 phases=3 windings=2 Xhl=3.700
~ wdg=1 bus=node_426456487.1.2.3 conn=delta Kv=13.8 Kva=45.0 %R=0.760
~ wdg=2 bus=node_403350348.1.2.3.4 conn=wye Kv=0.2200 Kva=45.0 %R=0.760
New Transformer.326307558_326879484 phases=3 windings=2 Xhl=3.700
~ wdg=1 bus=node_435270899.1.2.3 conn=delta Kv=13.8 Kva=45.0 %R=0.760
~ wdg=2 bus=node_415573394.1.2.3.4 conn=wye Kv=0.2200 Kva=45.0 %R=0.760
New Transformer.365347183_365477726 phases=3 windings=2 Xhl=3.700
~ wdg=1 bus=node_435097108.1.2.3 conn=delta Kv=13.8 Kva=45.0 %R=0.760
~ wdg=2 bus=node_403421929.1.2.3.4 conn=wye Kv=0.2200 Kva=45.0 %R=0.760
New Transformer.326307887_326943003 phases=3 windings=2 Xhl=3.700
~ wdg=1 bus=node_442141674.1.2.3 conn=delta Kv=13.8 Kva=45.0 %R=0.760
~ wdg=2 bus=node_417071613.1.2.3.4 conn=wye Kv=0.2200 Kva=45.0 %R=0.760
New Transformer.326583220_1689508666 phases=3 windings=2 Xhl=3.700
~ wdg=1 bus=node_442141749.1.2.3 conn=delta Kv=13.8 Kva=45.0 %R=0.760
~ wdg=2 bus=node_415670056.1.2.3.4 conn=wye Kv=0.2200 Kva=45.0 %R=0.760
New Transformer.365310279_590064304 phases=3 windings=2 Xhl=3.700
~ wdg=1 bus=node_426454767.1.2.3 conn=delta Kv=13.8 Kva=45.0 %R=0.760
~ wdg=2 bus=node_403422112.1.2.3.4 conn=wye Kv=0.2200 Kva=45.0 %R=0.760
New Transformer.326584022_326924487 phases=3 windings=2 Xhl=3.700
~ wdg=1 bus=node_427978813.1.2.3 conn=delta Kv=13.8 Kva=45.0 %R=0.760
~ wdg=2 bus=node_417397088.1.2.3.4 conn=wye Kv=0.2200 Kva=45.0 %R=0.760
New Transformer.326308226_326846768 phases=3 windings=2 Xhl=3.700
~ wdg=1 bus=node_428781144.1.2.3 conn=delta Kv=13.8 Kva=45.0 %R=0.760
~ wdg=2 bus=node_415573346.1.2.3.4 conn=wye Kv=0.2200 Kva=45.0 %R=0.760
New Transformer.326308124_326846775 phases=3 windings=2 Xhl=3.700
~ wdg=1 bus=node_427979559.1.2.3 conn=delta Kv=13.8 Kva=45.0 %R=0.760
~ wdg=2 bus=node_415575962.1.2.3.4 conn=wye Kv=0.2200 Kva=45.0 %R=0.760
New Transformer.326308359_326879441 phases=3 windings=2 Xhl=3.700
~ wdg=1 bus=node_435271498.1.2.3 conn=delta Kv=13.8 Kva=45.0 %R=0.760
~ wdg=2 bus=node_415525098.1.2.3.4 conn=wye Kv=0.2200 Kva=45.0 %R=0.760
New Transformer.326308360_326850513 phases=3 windings=2 Xhl=3.700
~ wdg=1 bus=node_427822826.1.2.3 conn=delta Kv=13.8 Kva=45.0 %R=0.760
~ wdg=2 bus=node_415525089.1.2.3.4 conn=wye Kv=0.2200 Kva=45.0 %R=0.760
New Transformer.326308450_326904921 phases=3 windings=2 Xhl=3.700
~ wdg=1 bus=node_429428308.1.2.3 conn=delta Kv=13.8 Kva=45.0 %R=0.760
~ wdg=2 bus=node_415669801.1.2.3.4 conn=wye Kv=0.2200 Kva=45.0 %R=0.760
New Transformer.326308480_326849150 phases=3 windings=2 Xhl=3.700
~ wdg=1 bus=node_427979724.1.2.3 conn=delta Kv=13.8 Kva=45.0 %R=0.760
~ wdg=2 bus=node_417395465.1.2.3.4 conn=wye Kv=0.2200 Kva=45.0 %R=0.760
New Transformer.326308053_326880319 phases=3 windings=2 Xhl=3.700
~ wdg=1 bus=node_427822661.1.2.3 conn=delta Kv=13.8 Kva=45.0 %R=0.760
~ wdg=2 bus=node_417450363.1.2.3.4 conn=wye Kv=0.2200 Kva=45.0 %R=0.760
New Transformer.326583342_326942886 phases=3 windings=2 Xhl=3.700
~ wdg=1 bus=node_443779506.1.2.3 conn=delta Kv=13.8 Kva=45.0 %R=0.760
~ wdg=2 bus=node_415573439.1.2.3.4 conn=wye Kv=0.2200 Kva=45.0 %R=0.760
New Transformer.2001734126_2001734125 phases=3 windings=2 Xhl=3.700
~ wdg=1 bus=node_2319975488.1.2.3 conn=delta Kv=13.8 Kva=45.0 %R=0.760
~ wdg=2 bus=node_2319975587.1.2.3.4 conn=wye Kv=0.2200 Kva=45.0 %R=0.760
New Transformer.365311729_365481027 phases=3 windings=2 Xhl=3.700
~ wdg=1 bus=node_428664365.1.2.3 conn=delta Kv=13.8 Kva=45.0 %R=0.760
~ wdg=2 bus=node_403422610.1.2.3.4 conn=wye Kv=0.2200 Kva=45.0 %R=0.760
New Transformer.326584371_326942719 phases=3 windings=2 Xhl=3.700
~ wdg=1 bus=node_427980139.1.2.3 conn=delta Kv=13.8 Kva=45.0 %R=0.760
~ wdg=2 bus=node_417434553.1.2.3.4 conn=wye Kv=0.2200 Kva=45.0 %R=0.760
New Transformer.326584200_326906155 phases=3 windings=2 Xhl=3.700
~ wdg=1 bus=node_427823625.1.2.3 conn=delta Kv=13.8 Kva=45.0 %R=0.760
~ wdg=2 bus=node_417436485.1.2.3.4 conn=wye Kv=0.2200 Kva=45.0 %R=0.760
New Transformer.365370554_365477545 phases=3 windings=2 Xhl=3.700
~ wdg=1 bus=node_431803263.1.2.3 conn=delta Kv=13.8 Kva=45.0 %R=0.760
~ wdg=2 bus=node_405892355.1.2.3.4 conn=wye Kv=0.2200 Kva=45.0 %R=0.760
New Transformer.365349001_365462723 phases=3 windings=2 Xhl=3.700
~ wdg=1 bus=node_425809975.1.2.3 conn=delta Kv=13.8 Kva=45.0 %R=0.760
~ wdg=2 bus=node_403422643.1.2.3.4 conn=wye Kv=0.2200 Kva=45.0 %R=0.760
New Transformer.365329271_365486612 phases=3 windings=2 Xhl=3.700
~ wdg=1 bus=node_435096234.1.2.3 conn=delta Kv=13.8 Kva=45.0 %R=0.760
~ wdg=2 bus=node_403352148.1.2.3.4 conn=wye Kv=0.2200 Kva=45.0 %R=0.760
New Transformer.365371400_365379816 phases=3 windings=2 Xhl=3.700
~ wdg=1 bus=node_425809902.1.2.3 conn=delta Kv=13.8 Kva=45.0 %R=0.760
~ wdg=2 bus=node_403352127.1.2.3.4 conn=wye Kv=0.2200 Kva=45.0 %R=0.760
New Transformer.365350417_365476729 phases=3 windings=2 Xhl=3.700
~ wdg=1 bus=node_426303876.1.2.3 conn=delta Kv=13.8 Kva=45.0 %R=0.760
~ wdg=2 bus=node_403421485.1.2.3.4 conn=wye Kv=0.2200 Kva=45.0 %R=0.760
New Transformer.1784564952_1784564951 phases=3 windings=2 Xhl=3.700
~ wdg=1 bus=node_2109582089.1.2.3 conn=delta Kv=13.8 Kva=45.0 %R=0.760
~ wdg=2 bus=node_2109582188.1.2.3.4 conn=wye Kv=0.2200 Kva=45.0 %R=0.760
New Transformer.326672513_326879358 phases=3 windings=2 Xhl=3.700
~ wdg=1 bus=node_427823374.1.2.3 conn=delta Kv=13.8 Kva=45.0 %R=0.760
~ wdg=2 bus=node_459989162.1.2.3.4 conn=wye Kv=0.2200 Kva=45.0 %R=0.760
New Transformer.326672676_326944704 phases=3 windings=2 Xhl=3.700
~ wdg=1 bus=node_427822066.1.2.3 conn=delta Kv=13.8 Kva=45.0 %R=0.760
~ wdg=2 bus=node_415525122.1.2.3.4 conn=wye Kv=0.2200 Kva=45.0 %R=0.760
New Transformer.1814644815_1814644814 phases=3 windings=2 Xhl=3.700
~ wdg=1 bus=node_2181429502.1.2.3 conn=delta Kv=13.8 Kva=45.0 %R=0.760
~ wdg=2 bus=node_2181429404.1.2.3.4 conn=wye Kv=0.2200 Kva=45.0 %R=0.760
New Transformer.365368828_365462724 phases=3 windings=2 Xhl=3.700
~ wdg=1 bus=node_428345058.1.2.3 conn=delta Kv=13.8 Kva=45.0 %R=0.760
~ wdg=2 bus=node_403421338.1.2.3.4 conn=wye Kv=0.2200 Kva=45.0 %R=0.760
New Transformer.365376919_365463598 phases=3 windings=2 Xhl=3.700
~ wdg=1 bus=node_435430847.1.2.3 conn=delta Kv=13.8 Kva=45.0 %R=0.760
~ wdg=2 bus=node_403421920.1.2.3.4 conn=wye Kv=0.2200 Kva=45.0 %R=0.760
New Transformer.326673102_326943344 phases=3 windings=2 Xhl=3.700
~ wdg=1 bus=node_429429400.1.2.3 conn=delta Kv=13.8 Kva=45.0 %R=0.760
~ wdg=2 bus=node_416628800.1.2.3.4 conn=wye Kv=0.2200 Kva=45.0 %R=0.760
New Transformer.365369304_956424239 phases=3 windings=2 Xhl=3.700
~ wdg=1 bus=node_426455096.1.2.3 conn=delta Kv=13.8 Kva=45.0 %R=0.760
~ wdg=2 bus=node_403421932.1.2.3.4 conn=wye Kv=0.2200 Kva=45.0 %R=0.760
New Transformer.365369517_365477736 phases=3 windings=2 Xhl=3.700
~ wdg=1 bus=node_425810006.1.2.3 conn=delta Kv=13.8 Kva=45.0 %R=0.760
~ wdg=2 bus=node_406619752.1.2.3.4 conn=wye Kv=0.2200 Kva=45.0 %R=0.760
New Transformer.326672657_326944716 phases=3 windings=2 Xhl=3.700
~ wdg=1 bus=node_443779330.1.2.3 conn=delta Kv=13.8 Kva=45.0 %R=0.760
~ wdg=2 bus=node_415577228.1.2.3.4 conn=wye Kv=0.2200 Kva=45.0 %R=0.760
New Transformer.326672284_326904887 phases=3 windings=2 Xhl=3.700
~ wdg=1 bus=node_443780274.1.2.3 conn=delta Kv=13.8 Kva=45.0 %R=0.760
~ wdg=2 bus=node_415618919.1.2.3.4 conn=wye Kv=0.2200 Kva=45.0 %R=0.760
New Transformer.326672350_326924327 phases=3 windings=2 Xhl=3.700
~ wdg=1 bus=node_427822256.1.2.3 conn=delta Kv=13.8 Kva=45.0 %R=0.760
~ wdg=2 bus=node_417434565.1.2.3.4 conn=wye Kv=0.2200 Kva=45.0 %R=0.760
New Transformer.1597076067_1597076066 phases=3 windings=2 Xhl=3.700
~ wdg=1 bus=node_427980129.1.2.3 conn=delta Kv=13.8 Kva=45.0 %R=0.760
~ wdg=2 bus=node_464312164.1.2.3.4 conn=wye Kv=0.2200 Kva=45.0 %R=0.760
New Transformer.326674105_326942724 phases=3 windings=2 Xhl=3.700
~ wdg=1 bus=node_427823445.1.2.3 conn=delta Kv=13.8 Kva=45.0 %R=0.760
~ wdg=2 bus=node_417043570.1.2.3.4 conn=wye Kv=0.2200 Kva=45.0 %R=0.760
New Transformer.365379092_365483759 phases=3 windings=2 Xhl=3.700
~ wdg=1 bus=node_438109536.1.2.3 conn=delta Kv=13.8 Kva=45.0 %R=0.760
~ wdg=2 bus=node_403422655.1.2.3.4 conn=wye Kv=0.2200 Kva=45.0 %R=0.760
New Transformer.326673657_326849256 phases=3 windings=2 Xhl=3.700
~ wdg=1 bus=node_435271478.1.2.3 conn=delta Kv=13.8 Kva=45.0 %R=0.760
~ wdg=2 bus=node_417071742.1.2.3.4 conn=wye Kv=0.2200 Kva=45.0 %R=0.760
New Transformer.326673687_326903309 phases=3 windings=2 Xhl=3.700
~ wdg=1 bus=node_427978708.1.2.3 conn=delta Kv=13.8 Kva=45.0 %R=0.760
~ wdg=2 bus=node_415668325.1.2.3.4 conn=wye Kv=0.2200 Kva=45.0 %R=0.760
New Transformer.326673646_326849087 phases=3 windings=2 Xhl=3.700
~ wdg=1 bus=node_427822261.1.2.3 conn=delta Kv=13.8 Kva=45.0 %R=0.760
~ wdg=2 bus=node_417436431.1.2.3.4 conn=wye Kv=0.2200 Kva=45.0 %R=0.760
New Transformer.326670937_326850503 phases=3 windings=2 Xhl=3.700
~ wdg=1 bus=node_427979224.1.2.3 conn=delta Kv=13.8 Kva=45.0 %R=0.760
~ wdg=2 bus=node_415576508.1.2.3.4 conn=wye Kv=0.2200 Kva=45.0 %R=0.760
New Transformer.326674475_326849298 phases=3 windings=2 Xhl=3.700
~ wdg=1 bus=node_435270654.1.2.3 conn=delta Kv=13.8 Kva=45.0 %R=0.760
~ wdg=2 bus=node_417378839.1.2.3.4 conn=wye Kv=0.2200 Kva=45.0 %R=0.760
New Transformer.326674229_326906367 phases=3 windings=2 Xhl=3.700
...